LTspice 24.0.12 for Windows
Circuit: * H:\Documents\Updated Skripise\IJK\Combined Circuit.asc
Start Time: Wed Oct 30 11:18:08 2024
Warning: Multiple definitions of model "2scr375p" Type: BJT
Warning: Multiple definitions of model "bc857b" Type: BJT
Warning: Multiple definitions of model "bc847c" Type: BJT
Warning: Multiple definitions of model "bc847b" Type: BJT
solver = Normal
Maximum thread count: 20
tnom = 27
temp = 27
method = modified trap
WARNING: Node N012 is floating.

Direct Newton iteration for .op point succeeded.
Total elapsed time: 0.129 seconds.

