LTspice 24.0.12 for Windows
Circuit: * H:\Documents\Updated Skripise\IJK\Zobal Network.asc
Start Time: Wed Oct 30 11:25:38 2024
solver = Normal
Maximum thread count: 20
tnom = 27
temp = 27
method = modified trap
.OP point found by inspection.
Total elapsed time: 0.186 seconds.

